
     RDKit          2D

 19 20  0  0  1  0  0  0  0  0999 V2000
    0.9025   -5.7750    0.0000 O   0  0  0  0  0  0  0  0  0  0  0  0
   -0.5265   -5.7750    0.0000 N   0  0  0  0  0  0  0  0  0  0  0  0
   -0.5265   -1.6500    0.0000 N   0  0  0  0  0  0  0  0  0  0  0  0
   -0.5265   -8.2500    0.0000 N   0  0  0  0  0  0  0  0  0  0  0  0
    0.1880   -2.8875    0.0000 C   0  0  0  0  0  0  0  0  0  0  0  0
    0.1880   -4.5375    0.0000 C   0  0  0  0  0  0  0  0  0  0  0  0
    0.9025   -3.3000    0.0000 C   0  0  0  0  0  0  0  0  0  0  0  0
   -0.5265   -3.3000    0.0000 C   0  0  0  0  0  0  0  0  0  0  0  0
    0.1880   -5.3625    0.0000 C   0  0  0  0  0  0  0  0  0  0  0  0
    0.1880   -2.0625    0.0000 C   0  0  0  0  0  0  0  0  0  0  0  0
    0.9025   -4.1250    0.0000 C   0  0  0  0  0  0  0  0  0  0  0  0
   -0.5265   -4.1250    0.0000 C   0  0  0  0  0  0  0  0  0  0  0  0
   -0.5265   -6.6000    0.0000 C   0  0  0  0  0  0  0  0  0  0  0  0
   -1.2409   -7.0125    0.0000 C   0  0  0  0  0  0  0  0  0  0  0  0
    0.1880   -7.0125    0.0000 C   0  0  0  0  0  0  0  0  0  0  0  0
    0.9025   -1.6500    0.0000 C   0  0  0  0  0  0  0  0  0  0  0  0
   -1.2409   -7.8375    0.0000 C   0  0  0  0  0  0  0  0  0  0  0  0
    0.1880   -7.8375    0.0000 C   0  0  0  0  0  0  0  0  0  0  0  0
    0.9025   -2.4750    0.0000 H   0  0  0  0  0  0  0  0  0  0  0  0
  1  9  2  0
  2  9  1  0
  2 13  1  0
 10  3  1  6
  4 17  2  0
  4 18  1  0
  5  7  1  0
  5  8  1  0
  5 10  1  0
  5 19  1  6
  6  9  1  6
  6 11  1  0
  6 12  1  0
  7 11  1  0
  8 12  1  0
 10 16  1  0
 13 14  2  0
 13 15  1  0
 14 17  1  0
 15 18  2  0
M  END

> <chembl_id>
CHEMBL559147

> <chembl_pref_name>
Y-27632
