
     RDKit          2D

 24 25  0  0  0  0  0  0  0  0999 V2000
   -0.7661    2.6223    0.0000 Cl  0  0  0  0  0  0  0  0  0  0  0  0
   -1.6427    5.2152    0.0000 C   0  0  0  0  0  0  0  0  0  0  0  0
   -2.3571    5.6277    0.0000 C   0  0  0  0  0  0  0  0  0  0  0  0
   -3.0716    5.2152    0.0000 C   0  0  0  0  0  0  0  0  0  0  0  0
   -3.0716    4.3902    0.0000 C   0  0  0  0  0  0  0  0  0  0  0  0
   -2.3572    3.9777    0.0000 C   0  0  0  0  0  0  0  0  0  0  0  0
   -1.6427    4.3902    0.0000 C   0  0  0  0  0  0  0  0  0  0  0  0
   -0.9282    5.6277    0.0000 C   0  0  0  0  0  0  0  0  0  0  0  0
   -0.2137    5.2152    0.0000 N   0  0  0  0  0  0  0  0  0  0  0  0
   -0.2137    4.3902    0.0000 C   0  0  0  0  0  0  0  0  0  0  0  0
   -0.9282    3.9777    0.0000 C   0  0  0  0  0  0  0  0  0  0  0  0
   -0.9282    6.4527    0.0000 O   0  0  0  0  0  0  0  0  0  0  0  0
   -3.7861    3.9777    0.0000 N   0  0  0  0  0  0  0  0  0  0  0  0
   -4.5006    4.3902    0.0000 C   0  0  0  0  0  0  0  0  0  0  0  0
   -5.2150    3.9777    0.0000 C   0  0  0  0  0  0  0  0  0  0  0  0
   -4.5006    5.2152    0.0000 O   0  0  0  0  0  0  0  0  0  0  0  0
   -5.9295    4.3902    0.0000 N   0  0  0  0  0  0  0  0  0  0  0  0
   -5.2150    3.1527    0.0000 C   0  0  0  0  0  0  0  0  0  0  0  0
   -6.6440    3.9777    0.0000 C   0  0  0  0  0  0  0  0  0  0  0  0
   -5.9295    5.2152    0.0000 C   0  0  0  0  0  0  0  0  0  0  0  0
   -5.8825    2.6677    0.0000 C   0  0  0  0  0  0  0  0  0  0  0  0
   -5.6275    1.8832    0.0000 S   0  0  0  0  0  0  0  0  0  0  0  0
   -4.8025    1.8832    0.0000 C   0  0  0  0  0  0  0  0  0  0  0  0
   -4.5476    2.6677    0.0000 C   0  0  0  0  0  0  0  0  0  0  0  0
  2  3  1  0
  3  4  2  0
  4  5  1  0
  5  6  2  0
  6  7  1  0
 11  7  1  0
  7  2  2  0
  2  8  1  0
  8  9  1  0
  9 10  1  0
 10 11  2  0
  8 12  2  0
  5 13  1  0
 13 14  1  0
 14 15  1  0
 14 16  2  0
 15 17  1  0
 15 18  1  0
 17 19  1  0
 17 20  1  0
 18 21  2  0
 18 24  1  0
 21 22  1  0
 22 23  1  0
 23 24  2  0
M  END

> <chembl_id>
CHEMBL3545124

> <chembl_pref_name>
VEROSUDIL HYDROCHLORIDE

$$$$

     RDKit          2D

 25 24  0  0  0  0  0  0  0  0999 V2000
   17.3040  -10.0549    0.0000 O   0  0  0  0  0  0  0  0  0  0  0  0
   12.3954   -7.2000    0.0000 C   0  0  0  0  0  0  0  0  0  0  0  0
   13.1102   -7.6120    0.0000 N   0  0  0  0  0  0  0  0  0  0  0  0
   13.1102   -8.4404    0.0000 C   0  0  0  0  0  0  0  0  0  0  0  0
   12.3954   -8.8523    0.0000 C   0  0  0  0  0  0  0  0  0  0  0  0
   11.6850   -8.4404    0.0000 C   0  0  0  0  0  0  0  0  0  0  0  0
   10.9700   -8.8523    0.0000 C   0  0  0  0  0  0  0  0  0  0  0  0
   10.2550   -8.4404    0.0000 C   0  0  0  0  0  0  0  0  0  0  0  0
   10.2550   -7.6120    0.0000 C   0  0  0  0  0  0  0  0  0  0  0  0
   10.9700   -7.2000    0.0000 C   0  0  0  0  0  0  0  0  0  0  0  0
   11.6850   -7.6120    0.0000 C   0  0  0  0  0  0  0  0  0  0  0  0
   10.9700   -9.6762    0.0000 S   0  0  0  0  0  0  0  0  0  0  0  0
   10.1415   -9.6762    0.0000 O   0  0  0  0  0  0  0  0  0  0  0  0
   11.7939   -9.6762    0.0000 O   0  0  0  0  0  0  0  0  0  0  0  0
   10.9700  -10.5001    0.0000 N   0  0  0  0  0  0  0  0  0  0  0  0
   11.7123  -10.8606    0.0000 C   0  0  0  0  0  0  0  0  0  0  0  0
   11.8931  -11.6615    0.0000 C   0  0  0  0  0  0  0  0  0  0  0  0
   11.3818  -12.3086    0.0000 N   0  0  0  0  0  0  0  0  0  0  0  0
   10.5534  -12.3086    0.0000 C   0  0  0  0  0  0  0  0  0  0  0  0
   10.0422  -11.6615    0.0000 C   0  0  0  0  0  0  0  0  0  0  0  0
   10.2229  -10.8606    0.0000 C   0  0  0  0  0  0  0  0  0  0  0  0
   12.3547  -10.3447    0.0000 C   0  0  0  0  0  0  0  0  0  0  0  0
   12.3954   -9.6762    0.0000 F   0  0  0  0  0  0  0  0  0  0  0  0
   16.6791   -7.4167    0.0000 Cl  0  0  0  0  0  0  0  0  0  0  0  0
   17.3040  -10.0549    0.0000 O   0  0  0  0  0  0  0  0  0  0  0  0
  3  4  1  0
  4  5  2  0
  5  6  1  0
  6  7  1  0
  7  8  2  0
  8  9  1  0
  9 10  2  0
 10 11  1  0
  2 11  1  0
  6 11  2  0
  7 12  1  0
 12 13  2  0
 12 14  2  0
 12 15  1  0
 15 16  1  0
 16 17  1  0
 17 18  1  0
 18 19  1  0
 19 20  1  0
 20 21  1  0
 15 21  1  0
 16 22  1  1
  5 23  1  0
  2  3  2  0
M  END


> <chembl_id>
CHEMBL4594454

> <chembl_pref_name>
RIPASUDIL HYDROCHLORIDE DIHYDRATE

$$$$

     RDKit          2D

 34 38  0  0  0  0  0  0  0  0999 V2000
    9.7825   -2.6021    0.0000 O   0  0  0  0  0  0  0  0  0  0  0  0
   11.2115   -1.7771    0.0000 O   0  0  0  0  0  0  0  0  0  0  0  0
    6.9246   -1.7771    0.0000 N   0  0  0  0  0  0  0  0  0  0  0  0
    6.2102   -3.0146    0.0000 N   0  0  0  0  0  0  0  0  0  0  0  0
    6.2102   -0.5396    0.0000 N   0  0  0  0  0  0  0  0  0  0  0  0
    3.2821    0.9529    0.0000 N   0  0  0  0  0  0  0  0  0  0  0  0
    2.7972    0.2854    0.0000 N   0  0  0  0  0  0  0  0  0  0  0  0
   10.4970   -0.5396    0.0000 N   0  0  0  0  0  0  0  0  0  0  0  0
    5.4957   -1.7771    0.0000 C   0  0  0  0  0  0  0  0  0  0  0  0
    6.2102   -1.3646    0.0000 C   0  0  0  0  0  0  0  0  0  0  0  0
    5.4957   -2.6021    0.0000 C   0  0  0  0  0  0  0  0  0  0  0  0
    6.9246   -2.6021    0.0000 C   0  0  0  0  0  0  0  0  0  0  0  0
    7.6391   -3.0146    0.0000 C   0  0  0  0  0  0  0  0  0  0  0  0
    5.4957   -0.1271    0.0000 C   0  0  0  0  0  0  0  0  0  0  0  0
    4.0668   -0.1271    0.0000 C   0  0  0  0  0  0  0  0  0  0  0  0
    4.7812   -1.3646    0.0000 C   0  0  0  0  0  0  0  0  0  0  0  0
    4.0668    0.6979    0.0000 C   0  0  0  0  0  0  0  0  0  0  0  0
    4.7812   -3.0146    0.0000 C   0  0  0  0  0  0  0  0  0  0  0  0
    4.7812   -0.5396    0.0000 C   0  0  0  0  0  0  0  0  0  0  0  0
    8.3536   -2.6021    0.0000 C   0  0  0  0  0  0  0  0  0  0  0  0
    5.4957    0.6979    0.0000 C   0  0  0  0  0  0  0  0  0  0  0  0
    7.6391   -3.8396    0.0000 C   0  0  0  0  0  0  0  0  0  0  0  0
    4.7812    1.1104    0.0000 C   0  0  0  0  0  0  0  0  0  0  0  0
    9.0681   -3.0146    0.0000 C   0  0  0  0  0  0  0  0  0  0  0  0
    4.0668   -1.7771    0.0000 C   0  0  0  0  0  0  0  0  0  0  0  0
    4.0668   -2.6021    0.0000 C   0  0  0  0  0  0  0  0  0  0  0  0
    3.2821   -0.3820    0.0000 C   0  0  0  0  0  0  0  0  0  0  0  0
    8.3536   -4.2521    0.0000 C   0  0  0  0  0  0  0  0  0  0  0  0
    9.0681   -3.8396    0.0000 C   0  0  0  0  0  0  0  0  0  0  0  0
    9.7825   -1.7771    0.0000 C   0  0  0  0  0  0  0  0  0  0  0  0
   10.4970   -1.3646    0.0000 C   0  0  0  0  0  0  0  0  0  0  0  0
   11.2115   -0.1271    0.0000 C   0  0  0  0  0  0  0  0  0  0  0  0
   11.2115    0.6979    0.0000 C   0  0  0  0  0  0  0  0  0  0  0  0
   11.9259   -0.5396    0.0000 C   0  0  0  0  0  0  0  0  0  0  0  0
  1 24  1  0
  1 30  1  0
  2 31  2  0
  3 10  1  0
  3 12  2  0
  4 11  2  0
  4 12  1  0
  5 10  1  0
  5 14  1  0
  6  7  1  0
  6 17  1  0
  7 27  2  0
  8 31  1  0
  8 32  1  0
  9 10  2  0
  9 11  1  0
  9 16  1  0
 11 18  1  0
 12 13  1  0
 13 20  2  0
 13 22  1  0
 14 19  1  0
 14 21  2  0
 15 17  1  0
 15 19  2  0
 15 27  1  0
 16 25  2  0
 17 23  2  0
 18 26  2  0
 20 24  1  0
 21 23  1  0
 22 28  2  0
 24 29  2  0
 25 26  1  0
 28 29  1  0
 30 31  1  0
 32 33  1  0
 32 34  1  0
M  END

> <chembl_id>
CHEMBL2005186

> <chembl_pref_name>
BELUMOSUDIL

$$$$

     RDKit          2D

 39 42  0  0  0  0  0  0  0  0999 V2000
    9.0856    1.4068    0.0000 C   0  0  0  0  0  0  0  0  0  0  0  0
    8.2606    1.4068    0.0000 S   0  0  0  0  0  0  0  0  0  0  0  0
    7.4356    1.4068    0.0000 O   0  0  0  0  0  0  0  0  0  0  0  0
    8.2606    2.2318    0.0000 O   0  0  0  0  0  0  0  0  0  0  0  0
    8.2606    0.5818    0.0000 O   0  0  0  0  0  0  0  0  0  0  0  0
    9.7825   -2.6021    0.0000 O   0  0  0  0  0  0  0  0  0  0  0  0
   11.2115   -1.7771    0.0000 O   0  0  0  0  0  0  0  0  0  0  0  0
    6.9246   -1.7771    0.0000 N   0  0  0  0  0  0  0  0  0  0  0  0
    6.2102   -3.0146    0.0000 N   0  0  0  0  0  0  0  0  0  0  0  0
    6.2102   -0.5396    0.0000 N   0  0  0  0  0  0  0  0  0  0  0  0
    3.2821    0.9529    0.0000 N   0  0  0  0  0  0  0  0  0  0  0  0
    2.7972    0.2854    0.0000 N   0  0  0  0  0  0  0  0  0  0  0  0
   10.4970   -0.5396    0.0000 N   0  0  0  0  0  0  0  0  0  0  0  0
    5.4957   -1.7771    0.0000 C   0  0  0  0  0  0  0  0  0  0  0  0
    6.2102   -1.3646    0.0000 C   0  0  0  0  0  0  0  0  0  0  0  0
    5.4957   -2.6021    0.0000 C   0  0  0  0  0  0  0  0  0  0  0  0
    6.9246   -2.6021    0.0000 C   0  0  0  0  0  0  0  0  0  0  0  0
    7.6391   -3.0146    0.0000 C   0  0  0  0  0  0  0  0  0  0  0  0
    5.4957   -0.1271    0.0000 C   0  0  0  0  0  0  0  0  0  0  0  0
    4.0668   -0.1271    0.0000 C   0  0  0  0  0  0  0  0  0  0  0  0
    4.7812   -1.3646    0.0000 C   0  0  0  0  0  0  0  0  0  0  0  0
    4.0668    0.6979    0.0000 C   0  0  0  0  0  0  0  0  0  0  0  0
    4.7812   -3.0146    0.0000 C   0  0  0  0  0  0  0  0  0  0  0  0
    4.7812   -0.5396    0.0000 C   0  0  0  0  0  0  0  0  0  0  0  0
    8.3536   -2.6021    0.0000 C   0  0  0  0  0  0  0  0  0  0  0  0
    5.4957    0.6979    0.0000 C   0  0  0  0  0  0  0  0  0  0  0  0
    7.6391   -3.8396    0.0000 C   0  0  0  0  0  0  0  0  0  0  0  0
    4.7812    1.1104    0.0000 C   0  0  0  0  0  0  0  0  0  0  0  0
    9.0681   -3.0146    0.0000 C   0  0  0  0  0  0  0  0  0  0  0  0
    4.0668   -1.7771    0.0000 C   0  0  0  0  0  0  0  0  0  0  0  0
    4.0668   -2.6021    0.0000 C   0  0  0  0  0  0  0  0  0  0  0  0
    3.2821   -0.3820    0.0000 C   0  0  0  0  0  0  0  0  0  0  0  0
    8.3536   -4.2521    0.0000 C   0  0  0  0  0  0  0  0  0  0  0  0
    9.0681   -3.8396    0.0000 C   0  0  0  0  0  0  0  0  0  0  0  0
    9.7825   -1.7771    0.0000 C   0  0  0  0  0  0  0  0  0  0  0  0
   10.4970   -1.3646    0.0000 C   0  0  0  0  0  0  0  0  0  0  0  0
   11.2115   -0.1271    0.0000 C   0  0  0  0  0  0  0  0  0  0  0  0
   11.2115    0.6979    0.0000 C   0  0  0  0  0  0  0  0  0  0  0  0
   11.9259   -0.5396    0.0000 C   0  0  0  0  0  0  0  0  0  0  0  0
  1  2  1  0
  2  3  2  0
  2  4  2  0
  2  5  1  0
  6 29  1  0
  6 35  1  0
  7 36  2  0
  8 15  1  0
  8 17  2  0
  9 16  2  0
  9 17  1  0
 10 15  1  0
 10 19  1  0
 11 12  1  0
 11 22  1  0
 12 32  2  0
 13 36  1  0
 13 37  1  0
 14 15  2  0
 14 16  1  0
 14 21  1  0
 16 23  1  0
 17 18  1  0
 18 25  2  0
 18 27  1  0
 19 24  1  0
 19 26  2  0
 20 22  1  0
 20 24  2  0
 20 32  1  0
 21 30  2  0
 22 28  2  0
 23 31  2  0
 25 29  1  0
 26 28  1  0
 27 33  2  0
 29 34  2  0
 30 31  1  0
 33 34  1  0
 35 36  1  0
 37 38  1  0
 37 39  1  0
M  END

> <chembl_id>
CHEMBL4802130

> <chembl_pref_name>
BELUMOSUDIL MESYLATE

$$$$

     RDKit          2D

 35 37  0  0  0  0  0  0  0  0999 V2000
    8.8917  -20.4667    0.0000 O   0  0  0  0  0  0  0  0  0  0  0  0
    5.3667  -19.3625    0.0000 C   0  0  0  0  0  0  0  0  0  0  0  0
    4.1375  -19.3625    0.0000 C   0  0  0  0  0  0  0  0  0  0  0  0
    5.3667  -18.6417    0.0000 C   0  0  0  0  0  0  0  0  0  0  0  0
    6.6125  -19.3625    0.0000 C   0  0  0  0  0  0  0  0  0  0  0  0
    4.7500  -19.7167    0.0000 C   0  0  0  0  0  0  0  0  0  0  0  0
    5.9917  -19.7167    0.0000 C   0  0  0  0  0  0  0  0  0  0  0  0
    6.6125  -18.6417    0.0000 C   0  0  0  0  0  0  0  0  0  0  0  0
    3.5125  -19.7167    0.0000 C   0  0  0  0  0  0  0  0  0  0  0  0
    4.1375  -18.6417    0.0000 C   0  0  0  0  0  0  0  0  0  0  0  0
    5.9917  -18.2875    0.0000 C   0  0  0  0  0  0  0  0  0  0  0  0
    2.8917  -19.3625    0.0000 C   0  0  0  0  0  0  0  0  0  0  0  0
    4.7500  -18.2875    0.0000 C   0  0  0  0  0  0  0  0  0  0  0  0
    2.8917  -18.6417    0.0000 C   0  0  0  0  0  0  0  0  0  0  0  0
    3.5125  -18.2875    0.0000 C   0  0  0  0  0  0  0  0  0  0  0  0
    7.2292  -19.7167    0.0000 C   0  0  0  0  0  0  0  0  0  0  0  0
    5.9917  -17.5750    0.0000 N   0  0  0  0  0  0  0  0  0  0  0  0
    5.9917  -20.4417    0.0000 O   0  0  0  0  0  0  0  0  0  0  0  0
    3.5125  -20.4417    0.0000 O   0  0  0  0  0  0  0  0  0  0  0  0
    2.2750  -19.7167    0.0000 C   0  0  0  0  0  0  0  0  0  0  0  0
    5.3667  -20.0417    0.0000 O   0  0  0  0  0  0  0  0  0  0  0  0
    7.2167  -20.4292    0.0000 O   0  0  0  0  0  0  0  0  0  0  0  0
    4.7500  -20.4417    0.0000 O   0  0  0  0  0  0  0  0  0  0  0  0
    7.2292  -18.2875    0.0000 O   0  0  0  0  0  0  0  0  0  0  0  0
    4.7500  -17.5750    0.0000 O   0  0  0  0  0  0  0  0  0  0  0  0
    7.8625  -19.3875    0.0000 N   0  0  0  0  0  0  0  0  0  0  0  0
    2.2750  -18.2875    0.0000 C   0  0  0  0  0  0  0  0  0  0  0  0
    3.5125  -17.5750    0.0000 C   0  0  0  0  0  0  0  0  0  0  0  0
    2.2750  -20.4417    0.0000 O   0  0  0  0  0  0  0  0  0  0  0  0
    1.6542  -18.6417    0.0000 C   0  0  0  0  0  0  0  0  0  0  0  0
    1.6542  -19.3625    0.0000 C   0  0  0  0  0  0  0  0  0  0  0  0
    6.6000  -17.2292    0.0000 C   0  0  0  0  0  0  0  0  0  0  0  0
    5.3750  -17.2167    0.0000 C   0  0  0  0  0  0  0  0  0  0  0  0
    4.1375  -18.0000    0.0000 H   0  0  0  0  0  0  0  0  0  0  0  0
    5.3667  -17.9667    0.0000 H   0  0  0  0  0  0  0  0  0  0  0  0
  3  6  2  0
  4  2  1  0
  5  7  1  0
  6  2  1  0
  7  2  1  0
  8  5  2  0
  9  3  1  0
 10  3  1  0
 11  4  1  0
 12  9  1  0
 13  4  1  0
 14 15  1  0
 15 10  1  0
 16  5  1  0
 11 17  1  6
 18  7  2  0
 19  9  2  0
 20 12  1  0
  2 21  1  6
 22 16  2  0
 23  6  1  0
 24  8  1  0
 13 25  1  6
 26 16  1  0
 27 14  1  0
 15 28  1  6
 29 20  1  0
 30 27  2  0
 31 20  2  0
 32 17  1  0
 33 17  1  0
 10 34  1  6
  4 35  1  6
 13 10  1  0
 11  8  1  0
 14 12  2  0
 30 31  1  0
M  END

> <chembl_id>
CHEMBL1200699

> <chembl_pref_name>
DOXYCYCLINE

$$$$

     RDKit          2D

 24 27  0  0  0  0  0  0  0  0999 V2000
   -1.7500   -2.6583    0.0000 C   0  0  0  0  0  0  0  0  0  0  0  0
   -2.1682   -3.3724    0.0000 C   0  0  0  0  0  0  0  0  0  0  0  0
   -1.7606   -4.0885    0.0000 C   0  0  0  0  0  0  0  0  0  0  0  0
   -0.9310   -4.0940    0.0000 C   0  0  0  0  0  0  0  0  0  0  0  0
   -0.5147   -3.3746    0.0000 C   0  0  0  0  0  0  0  0  0  0  0  0
   -0.9289   -2.6595    0.0000 C   0  0  0  0  0  0  0  0  0  0  0  0
    0.3103   -3.3744    0.0000 N   0  0  0  0  0  0  0  0  0  0  0  0
    0.7227   -2.6599    0.0000 C   0  0  0  0  0  0  0  0  0  0  0  0
    1.5478   -2.6597    0.0000 C   0  0  0  0  0  0  0  0  0  0  0  0
    0.3101   -1.9454    0.0000 O   0  0  0  0  0  0  0  0  0  0  0  0
    1.9559   -3.3764    0.0000 C   0  0  0  0  0  0  0  0  0  0  0  0
    2.7773   -3.3783    0.0000 O   0  0  0  0  0  0  0  0  0  0  0  0
    1.9545   -1.9458    0.0000 O   0  0  0  0  0  0  0  0  0  0  0  0
    2.7822   -1.9492    0.0000 C   0  0  0  0  0  0  0  0  0  0  0  0
    3.1903   -2.6628    0.0000 C   0  0  0  0  0  0  0  0  0  0  0  0
    4.0104   -2.6651    0.0000 C   0  0  0  0  0  0  0  0  0  0  0  0
    4.4233   -1.9546    0.0000 C   0  0  0  0  0  0  0  0  0  0  0  0
    4.0103   -1.2403    0.0000 C   0  0  0  0  0  0  0  0  0  0  0  0
    3.1915   -1.2415    0.0000 C   0  0  0  0  0  0  0  0  0  0  0  0
   -2.9958   -3.3688    0.0000 C   0  0  0  0  0  0  0  0  0  0  0  0
   -3.4766   -2.6984    0.0000 C   0  0  0  0  0  0  0  0  0  0  0  0
   -4.2628   -2.9485    0.0000 N   0  0  0  0  0  0  0  0  0  0  0  0
   -4.2680   -3.7736    0.0000 N   0  0  0  0  0  0  0  0  0  0  0  0
   -3.4849   -4.0332    0.0000 C   0  0  0  0  0  0  0  0  0  0  0  0
  6  1  1  0
  9 13  1  0
 11 12  1  0
 12 15  1  0
 14 13  1  0
  1  2  2  0
  5  7  1  0
 14 15  2  0
  3  4  2  0
 15 16  1  0
  7  8  1  0
 16 17  2  0
 17 18  1  0
  8  9  1  0
 18 19  2  0
 19 14  1  0
 20 21  1  0
  4  5  1  0
  8 10  2  0
  9 11  1  0
  2  3  1  0
  5  6  2  0
 21 22  2  0
 22 23  1  0
 23 24  1  0
 24 20  2  0
  2 20  1  0
M  END

> <chembl_id>
CHEMBL519123

> <chembl_pref_name>
None

$$$$

     RDKit          2D

 23 25  0  0  0  0  0  0  0  0999 V2000
   -1.6427    5.2152    0.0000 C   0  0  0  0  0  0  0  0  0  0  0  0
   -2.3571    5.6277    0.0000 C   0  0  0  0  0  0  0  0  0  0  0  0
   -3.0716    5.2152    0.0000 C   0  0  0  0  0  0  0  0  0  0  0  0
   -3.0716    4.3902    0.0000 C   0  0  0  0  0  0  0  0  0  0  0  0
   -2.3572    3.9777    0.0000 C   0  0  0  0  0  0  0  0  0  0  0  0
   -1.6427    4.3902    0.0000 C   0  0  0  0  0  0  0  0  0  0  0  0
   -0.9282    5.6277    0.0000 C   0  0  0  0  0  0  0  0  0  0  0  0
   -0.2137    5.2152    0.0000 N   0  0  0  0  0  0  0  0  0  0  0  0
   -0.2137    4.3902    0.0000 C   0  0  0  0  0  0  0  0  0  0  0  0
   -0.9282    3.9777    0.0000 C   0  0  0  0  0  0  0  0  0  0  0  0
   -0.9282    6.4527    0.0000 O   0  0  0  0  0  0  0  0  0  0  0  0
   -3.7861    3.9777    0.0000 N   0  0  0  0  0  0  0  0  0  0  0  0
   -4.5006    4.3902    0.0000 C   0  0  0  0  0  0  0  0  0  0  0  0
   -5.2150    3.9777    0.0000 C   0  0  0  0  0  0  0  0  0  0  0  0
   -4.5006    5.2152    0.0000 O   0  0  0  0  0  0  0  0  0  0  0  0
   -5.9295    4.3902    0.0000 N   0  0  0  0  0  0  0  0  0  0  0  0
   -5.2150    3.1527    0.0000 C   0  0  0  0  0  0  0  0  0  0  0  0
   -6.6440    3.9777    0.0000 C   0  0  0  0  0  0  0  0  0  0  0  0
   -5.9295    5.2152    0.0000 C   0  0  0  0  0  0  0  0  0  0  0  0
   -5.8825    2.6677    0.0000 C   0  0  0  0  0  0  0  0  0  0  0  0
   -5.6275    1.8832    0.0000 S   0  0  0  0  0  0  0  0  0  0  0  0
   -4.8025    1.8832    0.0000 C   0  0  0  0  0  0  0  0  0  0  0  0
   -4.5476    2.6677    0.0000 C   0  0  0  0  0  0  0  0  0  0  0  0
  1  2  1  0
  2  3  2  0
  3  4  1  0
  4  5  2  0
  5  6  1  0
 10  6  1  0
  6  1  2  0
  1  7  1  0
  7  8  1  0
  8  9  1  0
  9 10  2  0
  7 11  2  0
  4 12  1  0
 12 13  1  0
 13 14  1  0
 13 15  2  0
 14 16  1  0
 14 17  1  0
 16 18  1  0
 16 19  1  0
 17 20  2  0
 17 23  1  0
 20 21  1  0
 21 22  1  0
 22 23  2  0
M  END

> <chembl_id>
CHEMBL3545065

> <chembl_pref_name>
VEROSUDIL

$$$$

     RDKit          2D

 44 45  0  0  0  0  0  0  0  0999 V2000
  -11.9625   -5.3036    0.0000 C   0  0  0  0  0  0  0  0  0  0  0  0
  -11.1375   -5.3036    0.0000 S   0  0  0  0  0  0  0  0  0  0  0  0
  -11.1375   -4.4786    0.0000 O   0  0  0  0  0  0  0  0  0  0  0  0
  -11.1375   -6.1286    0.0000 O   0  0  0  0  0  0  0  0  0  0  0  0
  -10.3125   -5.3036    0.0000 O   0  0  0  0  0  0  0  0  0  0  0  0
  -10.4009   -2.8875    0.0000 C   0  0  0  0  0  0  0  0  0  0  0  0
   -9.5759   -2.8875    0.0000 S   0  0  0  0  0  0  0  0  0  0  0  0
   -9.5759   -2.0625    0.0000 O   0  0  0  0  0  0  0  0  0  0  0  0
   -9.5759   -3.7125    0.0000 O   0  0  0  0  0  0  0  0  0  0  0  0
   -8.7509   -2.8875    0.0000 O   0  0  0  0  0  0  0  0  0  0  0  0
  -23.0116   -2.2982    0.0000 C   0  0  0  0  0  0  0  0  0  0  0  0
  -23.7261   -2.7107    0.0000 C   0  0  0  0  0  0  0  0  0  0  0  0
  -23.7261   -3.5357    0.0000 C   0  0  0  0  0  0  0  0  0  0  0  0
  -23.0116   -3.9482    0.0000 C   0  0  0  0  0  0  0  0  0  0  0  0
  -22.2971   -3.5357    0.0000 C   0  0  0  0  0  0  0  0  0  0  0  0
  -22.2971   -2.7107    0.0000 C   0  0  0  0  0  0  0  0  0  0  0  0
  -24.4406   -3.9482    0.0000 C   0  0  0  0  0  0  0  0  0  0  0  0
  -21.5826   -3.9482    0.0000 C   0  0  0  0  0  0  0  0  0  0  0  0
  -21.5826   -2.2982    0.0000 C   0  0  0  0  0  0  0  0  0  0  0  0
  -20.8682   -2.7107    0.0000 O   0  0  0  0  0  0  0  0  0  0  0  0
  -21.5826   -1.4732    0.0000 O   0  0  0  0  0  0  0  0  0  0  0  0
  -20.1537   -2.2982    0.0000 C   0  0  0  0  0  0  0  0  0  0  0  0
  -19.4392   -2.7107    0.0000 C   0  0  0  0  0  0  0  0  0  0  0  0
  -19.4392   -3.5357    0.0000 C   0  0  0  0  0  0  0  0  0  0  0  0
  -18.7248   -3.9482    0.0000 C   0  0  0  0  0  0  0  0  0  0  0  0
  -18.0103   -3.5357    0.0000 C   0  0  0  0  0  0  0  0  0  0  0  0
  -18.0103   -2.7107    0.0000 C   0  0  0  0  0  0  0  0  0  0  0  0
  -18.7247   -2.2982    0.0000 C   0  0  0  0  0  0  0  0  0  0  0  0
  -17.2958   -3.9482    0.0000 C   0  0  0  0  0  0  0  0  0  0  0  0
  -16.5813   -3.5357    0.0000 C   0  0  0  0  0  0  0  0  0  0  0  0
  -15.8669   -3.9482    0.0000 N   0  0  0  0  0  0  0  0  0  0  0  0
  -16.5813   -2.7107    0.0000 O   0  0  0  0  0  0  0  0  0  0  0  0
  -17.2958   -4.7732    0.0000 C   0  0  0  0  0  0  0  0  0  0  0  0
  -16.5813   -5.1857    0.0000 N   0  0  0  0  0  0  0  0  0  0  0  0
  -15.1524   -3.5357    0.0000 C   0  0  0  0  0  0  0  0  0  0  0  0
  -14.4379   -3.9482    0.0000 C   0  0  0  0  0  0  0  0  0  0  0  0
  -13.7234   -3.5357    0.0000 C   0  0  0  0  0  0  0  0  0  0  0  0
  -13.7235   -2.7106    0.0000 C   0  0  0  0  0  0  0  0  0  0  0  0
  -14.4379   -2.2981    0.0000 C   0  0  0  0  0  0  0  0  0  0  0  0
  -15.1524   -2.7106    0.0000 C   0  0  0  0  0  0  0  0  0  0  0  0
  -13.0089   -3.9481    0.0000 C   0  0  0  0  0  0  0  0  0  0  0  0
  -12.2945   -3.5356    0.0000 C   0  0  0  0  0  0  0  0  0  0  0  0
  -12.2945   -2.7106    0.0000 N   0  0  0  0  0  0  0  0  0  0  0  0
  -13.0090   -2.2981    0.0000 C   0  0  0  0  0  0  0  0  0  0  0  0
  1  2  1  0
  2  3  2  0
  2  4  2  0
  2  5  1  0
  6  7  1  0
  7  8  2  0
  7  9  2  0
  7 10  1  0
 11 12  2  0
 11 16  1  0
 12 13  1  0
 13 14  2  0
 14 15  1  0
 15 16  2  0
 13 17  1  0
 15 18  1  0
 16 19  1  0
 19 20  1  0
 19 21  2  0
 20 22  1  0
 22 23  1  0
 23 24  1  0
 23 28  2  0
 24 25  2  0
 25 26  1  0
 26 27  2  0
 27 28  1  0
 26 29  1  0
 29 30  1  0
 30 31  1  0
 30 32  2  0
 29 33  1  6
 33 34  1  0
 31 35  1  0
 35 36  1  0
 35 40  2  0
 36 37  2  0
 38 39  2  0
 39 40  1  0
 37 41  1  0
 37 38  1  0
 38 44  1  0
 41 42  2  0
 42 43  1  0
 43 44  2  0
M  END

> <chembl_id>
CHEMBL4594251

> <chembl_pref_name>
NETARSUDIL DIMESYLATE

$$$$

     RDKit          2D

 21 22  0  0  0  0  0  0  0  0999 V2000
    5.0964    2.3885    0.0000 Cl  0  0  0  0  0  0  0  0  0  0  0  0
   -2.6111    0.7486    0.0000 C   0  0  0  0  0  0  0  0  0  0  0  0
   -2.6111   -0.7486    0.0000 N   0  0  0  0  0  0  0  0  0  0  0  0
   -1.2964   -1.4973    0.0000 C   0  0  0  0  0  0  0  0  0  0  0  0
   -1.2964    1.4973    0.0000 C   0  0  0  0  0  0  0  0  0  0  0  0
    0.0000    0.7486    0.0000 C   0  0  0  0  0  0  0  0  0  0  0  0
    0.0000   -0.7486    0.0000 C   0  0  0  0  0  0  0  0  0  0  0  0
    1.2964   -1.4973    0.0000 C   0  0  0  0  0  0  0  0  0  0  0  0
    2.5929   -0.7486    0.0000 C   0  0  0  0  0  0  0  0  0  0  0  0
    2.5929    0.7486    0.0000 C   0  0  0  0  0  0  0  0  0  0  0  0
    1.2964    1.4973    0.0000 C   0  0  0  0  0  0  0  0  0  0  0  0
    1.2964    2.9981    0.0000 S   0  0  0  0  0  0  0  0  0  0  0  0
   -0.0028    3.7494    0.0000 N   0  0  0  0  0  0  0  0  0  0  0  0
    2.3358    3.5978    0.0000 O   0  0  0  0  0  0  0  0  0  0  0  0
    2.3356    2.3980    0.0000 O   0  0  0  0  0  0  0  0  0  0  0  0
   -2.6901    3.3565    0.0000 C   0  0  0  0  0  0  0  0  0  0  0  0
   -3.2373    4.7532    0.0000 N   0  0  0  0  0  0  0  0  0  0  0  0
   -2.4864    6.0517    0.0000 C   0  0  0  0  0  0  0  0  0  0  0  0
   -1.2571    2.9134    0.0000 C   0  0  0  0  0  0  0  0  0  0  0  0
    0.0959    5.2534    0.0000 C   0  0  0  0  0  0  0  0  0  0  0  0
   -1.0030    6.2743    0.0000 C   0  0  0  0  0  0  0  0  0  0  0  0
  2  3  2  0
  3  4  1  0
  2  5  1  0
  5  6  2  0
  4  7  2  0
  6  7  1  0
  7  8  1  0
  8  9  2  0
  9 10  1  0
  6 11  1  0
 10 11  2  0
 11 12  1  0
 12 13  1  0
 12 14  2  0
 12 15  2  0
 16 17  1  0
 17 18  1  0
 13 19  1  0
 16 19  1  0
 13 20  1  0
 18 21  1  0
 20 21  1  0
M  END

> <chembl_id>
CHEMBL541388

> <chembl_pref_name>
FASUDIL HYDROCHLORIDE

$$$$

     RDKit          2D

 22 24  0  0  0  0  0  0  0  0999 V2000
   -1.2964   -1.4973    0.0000 C   0  0  0  0  0  0  0  0  0  0  0  0
   -1.2964    1.4973    0.0000 C   0  0  0  0  0  0  0  0  0  0  0  0
   -2.6111    0.7486    0.0000 C   0  0  0  0  0  0  0  0  0  0  0  0
   -2.6111   -0.7486    0.0000 C   0  0  0  0  0  0  0  0  0  0  0  0
    0.0000    0.7486    0.0000 C   0  0  0  0  0  0  0  0  0  0  0  0
    0.0000   -0.7486    0.0000 C   0  0  0  0  0  0  0  0  0  0  0  0
    1.2964   -1.4973    0.0000 C   0  0  0  0  0  0  0  0  0  0  0  0
    2.5929   -0.7486    0.0000 N   0  0  0  0  0  0  0  0  0  0  0  0
    2.5929    0.7486    0.0000 C   0  0  0  0  0  0  0  0  0  0  0  0
    1.2964    1.4973    0.0000 C   0  0  0  0  0  0  0  0  0  0  0  0
    1.2964    2.6973    0.0000 F   0  0  0  0  0  0  0  0  0  0  0  0
   -1.2876    2.9981    0.0000 S   0  0  0  0  0  0  0  0  0  0  0  0
   -2.5825    3.7569    0.0000 N   0  0  0  0  0  0  0  0  0  0  0  0
   -3.8415    2.9283    0.0000 C   0  0  0  0  0  0  0  0  0  0  0  0
   -5.2720    3.3797    0.0000 C   0  0  0  0  0  0  0  0  0  0  0  0
   -2.4750    5.2603    0.0000 C   0  0  0  0  0  0  0  0  0  0  0  0
   -5.8110    4.7795    0.0000 C   0  0  0  0  0  0  0  0  0  0  0  0
   -3.5680    6.2876    0.0000 C   0  0  0  0  0  0  0  0  0  0  0  0
   -5.0526    6.0737    0.0000 N   0  0  0  0  0  0  0  0  0  0  0  0
   -1.3573    5.6970    0.0000 C   0  0  0  0  0  0  0  0  0  0  0  0
   -0.2447    3.5917    0.0000 O   0  0  0  0  0  0  0  0  0  0  0  0
   -0.2520    2.3919    0.0000 O   0  0  0  0  0  0  0  0  0  0  0  0
  1  6  2  0
  5  2  2  0
  2  3  1  0
  3  4  2  0
  4  1  1  0
  5  6  1  0
  6  7  1  0
  7  8  2  0
  8  9  1  0
  9 10  2  0
 10  5  1  0
 10 11  1  0
  2 12  1  0
 12 13  1  0
 13 14  1  0
 14 15  1  0
 13 16  1  0
 15 17  1  0
 16 18  1  0
 17 19  1  0
 18 19  1  0
 16 20  1  6
 12 21  2  0
 12 22  2  0
M  END

> <chembl_id>
CHEMBL3426621

> <chembl_pref_name>
RIPASUDIL

$$$$
 
     RDKit          2D

 20 21  0  0  0  0  0  0  0  0999 V2000
    4.7339   -3.9374    0.0000 C   0  0  0  0  0  0  0  0  0  0  0  0
    4.7339   -4.7546    0.0000 C   0  0  0  0  0  0  0  0  0  0  0  0
    5.4392   -5.1590    0.0000 C   0  0  0  0  0  0  0  0  0  0  0  0
    6.1445   -4.7546    0.0000 C   0  0  0  0  0  0  0  0  0  0  0  0
    6.1445   -3.9374    0.0000 C   0  0  0  0  0  0  0  0  0  0  0  0
    5.4392   -3.5247    0.0000 C   0  0  0  0  0  0  0  0  0  0  0  0
    4.0250   -3.5309    0.0000 N   0  0  0  0  0  0  0  0  0  0  0  0
    6.8516   -5.1642    0.0000 N   0  0  0  0  0  0  0  0  0  0  0  0
    7.5599   -4.7566    0.0000 C   0  0  0  0  0  0  0  0  0  0  0  0
    8.2654   -5.1671    0.0000 N   0  0  0  0  0  0  0  0  0  0  0  0
    8.9732   -4.7602    0.0000 C   0  0  0  0  0  0  0  0  0  0  0  0
    8.9748   -3.9422    0.0000 C   0  0  0  0  0  0  0  0  0  0  0  0
    8.2627   -3.5327    0.0000 C   0  0  0  0  0  0  0  0  0  0  0  0
    7.5578   -3.9419    0.0000 C   0  0  0  0  0  0  0  0  0  0  0  0
    6.8491   -3.5351    0.0000 F   0  0  0  0  0  0  0  0  0  0  0  0
    9.6801   -5.1702    0.0000 O   0  0  0  0  0  0  0  0  0  0  0  0
    9.6785   -5.9874    0.0000 C   0  0  0  0  0  0  0  0  0  0  0  0
    9.6826   -3.5337    0.0000 C   0  0  0  0  0  0  0  0  0  0  0  0
   10.3902   -3.9423    0.0000 N   0  0  0  0  0  0  0  0  0  0  0  0
    9.6827   -2.7165    0.0000 O   0  0  0  0  0  0  0  0  0  0  0  0
  1  2  1  0
  1  6  1  0
  2  3  1  0
  3  4  1  0
  4  5  1  0
  5  6  1  0
  1  7  1  1
  4  8  1  6
  8  9  1  0
  9 10  2  0
 10 11  1  0
 11 12  2  0
 12 13  1  0
 13 14  2  0
 14  9  1  0
 14 15  1  0
 11 16  1  0
 16 17  1  0
 12 18  1  0
 18 19  1  0
 18 20  2  0
M  END

> <chembl_id>
CHEMBL4554795

> <chembl_pref_name>
None

$$$$
 
     RDKit          2D

 26 28  0  0  0  0  0  0  0  0999 V2000
   11.8328   -7.9656    0.0000 O   0  0  0  0  0  0  0  0  0  0  0  0
   11.4283   -8.6754    0.0000 S   0  0  0  0  0  0  0  0  0  0  0  0
   12.2453   -8.6708    0.0000 O   0  0  0  0  0  0  0  0  0  0  0  0
   10.7294   -9.9053    0.0000 C   0  0  0  0  0  0  0  0  0  0  0  0
   10.7282  -10.7248    0.0000 C   0  0  0  0  0  0  0  0  0  0  0  0
   11.4363  -11.1338    0.0000 C   0  0  0  0  0  0  0  0  0  0  0  0
   11.4345   -9.4964    0.0000 C   0  0  0  0  0  0  0  0  0  0  0  0
   12.1431   -9.9017    0.0000 C   0  0  0  0  0  0  0  0  0  0  0  0
   12.1439  -10.7207    0.0000 C   0  0  0  0  0  0  0  0  0  0  0  0
   12.8524  -11.1278    0.0000 C   0  0  0  0  0  0  0  0  0  0  0  0
   13.5607  -10.7170    0.0000 N   0  0  0  0  0  0  0  0  0  0  0  0
   13.5559   -9.8948    0.0000 C   0  0  0  0  0  0  0  0  0  0  0  0
   12.8468   -9.4915    0.0000 C   0  0  0  0  0  0  0  0  0  0  0  0
   12.8425   -8.6743    0.0000 C   0  0  0  0  0  0  0  0  0  0  0  0
   10.7231   -8.2728    0.0000 N   0  0  0  0  0  0  0  0  0  0  0  0
   10.0546   -8.7351    0.0000 C   0  0  0  0  0  0  0  0  0  0  0  0
    9.2707   -8.4977    0.0000 C   0  0  0  0  0  0  0  0  0  0  0  0
   10.7836   -7.4587    0.0000 C   0  0  0  0  0  0  0  0  0  0  0  0
    8.9658   -7.7409    0.0000 N   0  0  0  0  0  0  0  0  0  0  0  0
   10.1807   -6.9051    0.0000 C   0  0  0  0  0  0  0  0  0  0  0  0
    9.3726   -7.0335    0.0000 C   0  0  0  0  0  0  0  0  0  0  0  0
    8.1471   -7.7386    0.0000 C   0  0  0  0  0  0  0  0  0  0  0  0
    7.7406   -7.0297    0.0000 O   0  0  0  0  0  0  0  0  0  0  0  0
    7.7365   -8.4451    0.0000 C   0  0  0  0  0  0  0  0  0  0  0  0
    6.9193   -8.4427    0.0000 N   0  0  0  0  0  0  0  0  0  0  0  0
   11.5435   -7.1579    0.0000 C   0  0  0  0  0  0  0  0  0  0  0  0
  2  1  2  0
  3  2  2  0
  4  5  2  0
  5  6  1  0
  6  9  2  0
  8  7  2  0
  7  4  1  0
  8  9  1  0
  9 10  1  0
 10 11  2  0
 11 12  1  0
 12 13  2  0
 13  8  1  0
 13 14  1  0
  7  2  1  0
  2 15  1  0
 15 16  1  0
 16 17  1  0
 15 18  1  0
 17 19  1  0
 18 20  1  0
 19 21  1  0
 20 21  1  0
 19 22  1  0
 22 23  2  0
 22 24  1  0
 24 25  1  0
 18 26  1  1
M  END

> <chembl_id>
CHEMBL4448462

> <chembl_pref_name>
None

$$$$

     RDKit          2D

 34 37  0  0  0  0  0  0  0  0999 V2000
  -23.0116   -2.2982    0.0000 C   0  0  0  0  0  0  0  0  0  0  0  0
  -23.7261   -2.7107    0.0000 C   0  0  0  0  0  0  0  0  0  0  0  0
  -23.7261   -3.5357    0.0000 C   0  0  0  0  0  0  0  0  0  0  0  0
  -23.0116   -3.9482    0.0000 C   0  0  0  0  0  0  0  0  0  0  0  0
  -22.2971   -3.5357    0.0000 C   0  0  0  0  0  0  0  0  0  0  0  0
  -22.2971   -2.7107    0.0000 C   0  0  0  0  0  0  0  0  0  0  0  0
  -24.4406   -3.9482    0.0000 C   0  0  0  0  0  0  0  0  0  0  0  0
  -21.5826   -3.9482    0.0000 C   0  0  0  0  0  0  0  0  0  0  0  0
  -21.5826   -2.2982    0.0000 C   0  0  0  0  0  0  0  0  0  0  0  0
  -20.8682   -2.7107    0.0000 O   0  0  0  0  0  0  0  0  0  0  0  0
  -21.5826   -1.4732    0.0000 O   0  0  0  0  0  0  0  0  0  0  0  0
  -20.1537   -2.2982    0.0000 C   0  0  0  0  0  0  0  0  0  0  0  0
  -19.4392   -2.7107    0.0000 C   0  0  0  0  0  0  0  0  0  0  0  0
  -19.4392   -3.5357    0.0000 C   0  0  0  0  0  0  0  0  0  0  0  0
  -18.7248   -3.9482    0.0000 C   0  0  0  0  0  0  0  0  0  0  0  0
  -18.0103   -3.5357    0.0000 C   0  0  0  0  0  0  0  0  0  0  0  0
  -18.0103   -2.7107    0.0000 C   0  0  0  0  0  0  0  0  0  0  0  0
  -18.7247   -2.2982    0.0000 C   0  0  0  0  0  0  0  0  0  0  0  0
  -17.2958   -3.9482    0.0000 C   0  0  0  0  0  0  0  0  0  0  0  0
  -16.5813   -3.5357    0.0000 C   0  0  0  0  0  0  0  0  0  0  0  0
  -15.8669   -3.9482    0.0000 N   0  0  0  0  0  0  0  0  0  0  0  0
  -16.5813   -2.7107    0.0000 O   0  0  0  0  0  0  0  0  0  0  0  0
  -17.2958   -4.7732    0.0000 C   0  0  0  0  0  0  0  0  0  0  0  0
  -16.5813   -5.1857    0.0000 N   0  0  0  0  0  0  0  0  0  0  0  0
  -15.1524   -3.5357    0.0000 C   0  0  0  0  0  0  0  0  0  0  0  0
  -14.4379   -3.9482    0.0000 C   0  0  0  0  0  0  0  0  0  0  0  0
  -13.7234   -3.5357    0.0000 C   0  0  0  0  0  0  0  0  0  0  0  0
  -13.7235   -2.7106    0.0000 C   0  0  0  0  0  0  0  0  0  0  0  0
  -14.4379   -2.2981    0.0000 C   0  0  0  0  0  0  0  0  0  0  0  0
  -15.1524   -2.7106    0.0000 C   0  0  0  0  0  0  0  0  0  0  0  0
  -13.0089   -3.9481    0.0000 C   0  0  0  0  0  0  0  0  0  0  0  0
  -12.2945   -3.5356    0.0000 C   0  0  0  0  0  0  0  0  0  0  0  0
  -12.2945   -2.7106    0.0000 N   0  0  0  0  0  0  0  0  0  0  0  0
  -13.0090   -2.2981    0.0000 C   0  0  0  0  0  0  0  0  0  0  0  0
  1  2  2  0
  1  6  1  0
  2  3  1  0
  3  4  2  0
  4  5  1  0
  5  6  2  0
  3  7  1  0
  5  8  1  0
  6  9  1  0
  9 10  1  0
  9 11  2  0
 10 12  1  0
 12 13  1  0
 13 14  1  0
 13 18  2  0
 14 15  2  0
 15 16  1  0
 16 17  2  0
 17 18  1  0
 16 19  1  0
 19 20  1  0
 20 21  1  0
 20 22  2  0
 19 23  1  6
 23 24  1  0
 21 25  1  0
 25 26  1  0
 25 30  2  0
 26 27  2  0
 28 29  2  0
 29 30  1  0
 27 31  1  0
 27 28  1  0
 28 34  1  0
 31 32  2  0
 32 33  1  0
 33 34  2  0
M  END

> <chembl_id>
CHEMBL4594250

> <chembl_pref_name>
NETARSUDIL

$$$$

     RDKit          2D

 20 22  0  0  0  0  0  0  0  0999 V2000
   -2.6111    0.7486    0.0000 C   0  0  0  0  0  0  0  0  0  0  0  0
   -2.6111   -0.7486    0.0000 N   0  0  0  0  0  0  0  0  0  0  0  0
   -1.2964   -1.4973    0.0000 C   0  0  0  0  0  0  0  0  0  0  0  0
   -1.2964    1.4973    0.0000 C   0  0  0  0  0  0  0  0  0  0  0  0
    0.0000    0.7486    0.0000 C   0  0  0  0  0  0  0  0  0  0  0  0
    0.0000   -0.7486    0.0000 C   0  0  0  0  0  0  0  0  0  0  0  0
    1.2964   -1.4973    0.0000 C   0  0  0  0  0  0  0  0  0  0  0  0
    2.5929   -0.7486    0.0000 C   0  0  0  0  0  0  0  0  0  0  0  0
    2.5929    0.7486    0.0000 C   0  0  0  0  0  0  0  0  0  0  0  0
    1.2964    1.4973    0.0000 C   0  0  0  0  0  0  0  0  0  0  0  0
    1.2964    2.9981    0.0000 S   0  0  0  0  0  0  0  0  0  0  0  0
   -0.0028    3.7494    0.0000 N   0  0  0  0  0  0  0  0  0  0  0  0
    2.3358    3.5978    0.0000 O   0  0  0  0  0  0  0  0  0  0  0  0
    2.3356    2.3980    0.0000 O   0  0  0  0  0  0  0  0  0  0  0  0
   -2.6901    3.3565    0.0000 C   0  0  0  0  0  0  0  0  0  0  0  0
   -3.2373    4.7532    0.0000 N   0  0  0  0  0  0  0  0  0  0  0  0
   -2.4864    6.0517    0.0000 C   0  0  0  0  0  0  0  0  0  0  0  0
   -1.2571    2.9134    0.0000 C   0  0  0  0  0  0  0  0  0  0  0  0
    0.0959    5.2534    0.0000 C   0  0  0  0  0  0  0  0  0  0  0  0
   -1.0030    6.2743    0.0000 C   0  0  0  0  0  0  0  0  0  0  0  0
  1  2  2  0
  2  3  1  0
  1  4  1  0
  4  5  2  0
  3  6  2  0
  5  6  1  0
  6  7  1  0
  7  8  2  0
  8  9  1  0
  5 10  1  0
  9 10  2  0
 10 11  1  0
 11 12  1  0
 11 13  2  0
 11 14  2  0
 15 16  1  0
 16 17  1  0
 12 18  1  0
 15 18  1  0
 12 19  1  0
 17 20  1  0
 19 20  1  0
M  END

> <chembl_id>
CHEMBL38380

> <chembl_pref_name>
FASUDIL

$$$$
